output/1_TAP2_1/Cargas_BT_SA10_1_TAP2_1.dss
New "Load.BT_6425_M1" bus1="UC15168.1.4" phases=1 conn=delta model=2 kv=0.22 kw = 982.3000716843115 pf=0.92 status=variable vmaxpu=1.5 vminpu=0.93 daily="RES_2_SA" 
New "Load.BT_6425_M2" bus1="UC15168.1.4" phases=1 conn=delta model=3 kv=0.22 kw = 982.3000716843115 pf=0.92 status=variable vmaxpu=1.5 vminpu=0.93 daily="RES_2_SA"
 
New "Load.BT_7259_M1" bus1="UC15169.1.2.3.4" phases=3 conn=delta model=2 kv=0.38 kw = 771.1215546446876 pf=0.92 status=variable vmaxpu=1.5 vminpu=0.93 daily="RES_2_SA" 
New "Load.BT_7259_M2" bus1="UC15169.1.2.3.4" phases=3 conn=delta model=3 kv=0.38 kw = 771.1215546446876 pf=0.92 status=variable vmaxpu=1.5 vminpu=0.93 daily="RES_2_SA"
 
New "Load.BT_352_M1" bus1="UC15174.1.4" phases=1 conn=delta model=2 kv=0.22 kw = 1107.5634232793125 pf=0.92 status=variable vmaxpu=1.5 vminpu=0.93 daily="RES_10_SA" 
New "Load.BT_352_M2" bus1="UC15174.1.4" phases=1 conn=delta model=3 kv=0.22 kw = 1107.5634232793125 pf=0.92 status=variable vmaxpu=1.5 vminpu=0.93 daily="RES_10_SA"
 
New "Load.BT_2941_M1" bus1="UC13788.3.4" phases=1 conn=delta model=2 kv=0.22 kw = 387.16061457264396 pf=0.92 status=variable vmaxpu=1.5 vminpu=0.93 daily="RES_2_SA" 
New "Load.BT_2941_M2" bus1="UC13788.3.4" phases=1 conn=delta model=3 kv=0.22 kw = 387.16061457264396 pf=0.92 status=variable vmaxpu=1.5 vminpu=0.93 daily="RES_2_SA"
 
New "Load.BT_714_M1" bus1="UC15175.1.2.3.4" phases=3 conn=delta model=2 kv=0.38 kw = 1196.678263224536 pf=0.92 status=variable vmaxpu=1.5 vminpu=0.93 daily="RES_2_SA" 
New "Load.BT_714_M2" bus1="UC15175.1.2.3.4" phases=3 conn=delta model=3 kv=0.38 kw = 1196.678263224536 pf=0.92 status=variable vmaxpu=1.5 vminpu=0.93 daily="RES_2_SA"
 
New "Load.BT_7479_M1" bus1="ET1_159.2.3.4" phases=2 conn=delta model=2 kv=0.38 kw = 780.7179592905347 pf=0.92 status=variable vmaxpu=1.5 vminpu=0.93 daily="RES_3_SA" 
New "Load.BT_7479_M2" bus1="ET1_159.2.3.4" phases=2 conn=delta model=3 kv=0.38 kw = 780.7179592905347 pf=0.92 status=variable vmaxpu=1.5 vminpu=0.93 daily="RES_3_SA"
 
New "Load.BT_7575_M1" bus1="UC15178.3.4" phases=1 conn=delta model=2 kv=0.22 kw = 950.3691696451449 pf=0.92 status=variable vmaxpu=1.5 vminpu=0.93 daily="RES_1_SA" 
New "Load.BT_7575_M2" bus1="UC15178.3.4" phases=1 conn=delta model=3 kv=0.22 kw = 950.3691696451449 pf=0.92 status=variable vmaxpu=1.5 vminpu=0.93 daily="RES_1_SA"
 
New "Load.BT_6438_M1" bus1="UC15180.1.4" phases=1 conn=delta model=2 kv=0.22 kw = 486.35052409125524 pf=0.92 status=variable vmaxpu=1.5 vminpu=0.93 daily="RES_2_SA" 
New "Load.BT_6438_M2" bus1="UC15180.1.4" phases=1 conn=delta model=3 kv=0.22 kw = 486.35052409125524 pf=0.92 status=variable vmaxpu=1.5 vminpu=0.93 daily="RES_2_SA"
 
New "Load.BT_387_M1" bus1="UC15581.1.2.3.4" phases=3 conn=delta model=2 kv=0.38 kw = 404.81671963212904 pf=0.92 status=variable vmaxpu=1.5 vminpu=0.93 daily="RES_3_SA" 
New "Load.BT_387_M2" bus1="UC15581.1.2.3.4" phases=3 conn=delta model=3 kv=0.38 kw = 404.81671963212904 pf=0.92 status=variable vmaxpu=1.5 vminpu=0.93 daily="RES_3_SA"
 
New "Load.BT_7928_M1" bus1="UC15838.3.4" phases=1 conn=delta model=2 kv=0.22 kw = 0.0 pf=0.92 status=variable vmaxpu=1.5 vminpu=0.93 daily="RES_7_SA" 
New "Load.BT_7928_M2" bus1="UC15838.3.4" phases=1 conn=delta model=3 kv=0.22 kw = 0.0 pf=0.92 status=variable vmaxpu=1.5 vminpu=0.93 daily="RES_7_SA"
 
New "Load.BT_8263_M1" bus1="UC14653.1.2.3.4" phases=3 conn=delta model=2 kv=0.38 kw = 18.07217498357719 pf=0.92 status=variable vmaxpu=1.5 vminpu=0.93 daily="RES_3_SA" 
New "Load.BT_8263_M2" bus1="UC14653.1.2.3.4" phases=3 conn=delta model=3 kv=0.38 kw = 18.07217498357719 pf=0.92 status=variable vmaxpu=1.5 vminpu=0.93 daily="RES_3_SA"
 
New "Load.BT_7436_M1" bus1="UC10919.3.4" phases=1 conn=delta model=2 kv=0.22 kw = 357.8290646748284 pf=0.92 status=variable vmaxpu=1.5 vminpu=0.93 daily="RES_3_SA" 
New "Load.BT_7436_M2" bus1="UC10919.3.4" phases=1 conn=delta model=3 kv=0.22 kw = 357.8290646748284 pf=0.92 status=variable vmaxpu=1.5 vminpu=0.93 daily="RES_3_SA"
 
New "Load.BT_2214_M1" bus1="UC16152.1.4" phases=1 conn=delta model=2 kv=0.22 kw = 22.427241675385055 pf=0.92 status=variable vmaxpu=1.5 vminpu=0.93 daily="RES_7_SA" 
New "Load.BT_2214_M2" bus1="UC16152.1.4" phases=1 conn=delta model=3 kv=0.22 kw = 22.427241675385055 pf=0.92 status=variable vmaxpu=1.5 vminpu=0.93 daily="RES_7_SA"
 
New "Load.BT_2922_M1" bus1="UC2530.1.4" phases=1 conn=delta model=2 kv=0.22 kw = 314.45584471424314 pf=0.92 status=variable vmaxpu=1.5 vminpu=0.93 daily="RES_3_SA" 
New "Load.BT_2922_M2" bus1="UC2530.1.4" phases=1 conn=delta model=3 kv=0.22 kw = 314.45584471424314 pf=0.92 status=variable vmaxpu=1.5 vminpu=0.93 daily="RES_3_SA"
 
New "Load.BT_8626_M1" bus1="UC16140.1.2.3.4" phases=3 conn=delta model=2 kv=0.38 kw = 6003.5765295443425 pf=0.92 status=variable vmaxpu=1.5 vminpu=0.93 daily="RES_3_SA" 
New "Load.BT_8626_M2" bus1="UC16140.1.2.3.4" phases=3 conn=delta model=3 kv=0.38 kw = 6003.5765295443425 pf=0.92 status=variable vmaxpu=1.5 vminpu=0.93 daily="RES_3_SA"
 
New "Load.BT_288_M1" bus1="UC16156.3.4" phases=1 conn=delta model=2 kv=0.22 kw = 8.970896670154023 pf=0.92 status=variable vmaxpu=1.5 vminpu=0.93 daily="RES_7_SA" 
New "Load.BT_288_M2" bus1="UC16156.3.4" phases=1 conn=delta model=3 kv=0.22 kw = 8.970896670154023 pf=0.92 status=variable vmaxpu=1.5 vminpu=0.93 daily="RES_7_SA"
 
New "Load.BT_715_M1" bus1="UC16132.3.4" phases=1 conn=delta model=2 kv=0.22 kw = 48.31374264883788 pf=0.92 status=variable vmaxpu=1.5 vminpu=0.93 daily="COM_5_SA" 
New "Load.BT_715_M2" bus1="UC16132.3.4" phases=1 conn=delta model=3 kv=0.22 kw = 48.31374264883788 pf=0.92 status=variable vmaxpu=1.5 vminpu=0.93 daily="COM_5_SA"
 
New "Load.BT_1454_M1" bus1="UC8216.3.4" phases=1 conn=delta model=2 kv=0.22 kw = 1322.8832087978503 pf=0.92 status=variable vmaxpu=1.5 vminpu=0.93 daily="RES_3_SA" 
New "Load.BT_1454_M2" bus1="UC8216.3.4" phases=1 conn=delta model=3 kv=0.22 kw = 1322.8832087978503 pf=0.92 status=variable vmaxpu=1.5 vminpu=0.93 daily="RES_3_SA"
 
New "Load.BT_1169_M1" bus1="UC16139.2.4" phases=1 conn=delta model=2 kv=0.22 kw = 538.5508145106003 pf=0.92 status=variable vmaxpu=1.5 vminpu=0.93 daily="RES_3_SA" 
New "Load.BT_1169_M2" bus1="UC16139.2.4" phases=1 conn=delta model=3 kv=0.22 kw = 538.5508145106003 pf=0.92 status=variable vmaxpu=1.5 vminpu=0.93 daily="RES_3_SA"
 
New "Load.BT_2362_M1" bus1="UC16135.3.4" phases=1 conn=delta model=2 kv=0.22 kw = 339.75688969125116 pf=0.92 status=variable vmaxpu=1.5 vminpu=0.93 daily="RES_3_SA" 
New "Load.BT_2362_M2" bus1="UC16135.3.4" phases=1 conn=delta model=3 kv=0.22 kw = 339.75688969125116 pf=0.92 status=variable vmaxpu=1.5 vminpu=0.93 daily="RES_3_SA"
 
New "Load.BT_7328_M1" bus1="UC16138.3.4" phases=1 conn=delta model=2 kv=0.22 kw = 20.342628483721214 pf=0.92 status=variable vmaxpu=1.5 vminpu=0.93 daily="COM_5_SA" 
New "Load.BT_7328_M2" bus1="UC16138.3.4" phases=1 conn=delta model=3 kv=0.22 kw = 20.342628483721214 pf=0.92 status=variable vmaxpu=1.5 vminpu=0.93 daily="COM_5_SA"
 
New "Load.BT_1673_M1" bus1="UC8555.3.4" phases=1 conn=delta model=2 kv=0.22 kw = 686.7426493759333 pf=0.92 status=variable vmaxpu=1.5 vminpu=0.93 daily="RES_3_SA" 
New "Load.BT_1673_M2" bus1="UC8555.3.4" phases=1 conn=delta model=3 kv=0.22 kw = 686.7426493759333 pf=0.92 status=variable vmaxpu=1.5 vminpu=0.93 daily="RES_3_SA"
 
New "Load.BT_1124_M1" bus1="UC15362.2.3.4" phases=2 conn=delta model=2 kv=0.38 kw = 13.456345005231034 pf=0.92 status=variable vmaxpu=1.5 vminpu=0.93 daily="RES_7_SA" 
New "Load.BT_1124_M2" bus1="UC15362.2.3.4" phases=2 conn=delta model=3 kv=0.38 kw = 13.456345005231034 pf=0.92 status=variable vmaxpu=1.5 vminpu=0.93 daily="RES_7_SA"
 
New "Load.BT_84_M1" bus1="UC5102.1.4" phases=1 conn=delta model=2 kv=0.22 kw = 318.0702797109586 pf=0.92 status=variable vmaxpu=1.5 vminpu=0.93 daily="RES_3_SA" 
New "Load.BT_84_M2" bus1="UC5102.1.4" phases=1 conn=delta model=3 kv=0.22 kw = 318.0702797109586 pf=0.92 status=variable vmaxpu=1.5 vminpu=0.93 daily="RES_3_SA"
 
New "Load.BT_1414_M1" bus1="UC7753.1.4" phases=1 conn=delta model=2 kv=0.22 kw = 73.7420282534894 pf=0.92 status=variable vmaxpu=1.5 vminpu=0.93 daily="COM_5_SA" 
New "Load.BT_1414_M2" bus1="UC7753.1.4" phases=1 conn=delta model=3 kv=0.22 kw = 73.7420282534894 pf=0.92 status=variable vmaxpu=1.5 vminpu=0.93 daily="COM_5_SA"
 
New "Load.BT_6437_M1" bus1="UC12439.3.4" phases=1 conn=delta model=2 kv=0.22 kw = 206.02279481278 pf=0.92 status=variable vmaxpu=1.5 vminpu=0.93 daily="RES_3_SA" 
New "Load.BT_6437_M2" bus1="UC12439.3.4" phases=1 conn=delta model=3 kv=0.22 kw = 206.02279481278 pf=0.92 status=variable vmaxpu=1.5 vminpu=0.93 daily="RES_3_SA"
 
New "Load.BT_2368_M1" bus1="UC9732.1.4" phases=1 conn=delta model=2 kv=0.22 kw = 118.38795652221346 pf=0.92 status=variable vmaxpu=1.5 vminpu=0.93 daily="RES_2_SA" 
New "Load.BT_2368_M2" bus1="UC9732.1.4" phases=1 conn=delta model=3 kv=0.22 kw = 118.38795652221346 pf=0.92 status=variable vmaxpu=1.5 vminpu=0.93 daily="RES_2_SA"
 
New "Load.BT_491_M1" bus1="UC1855.1.4" phases=1 conn=delta model=2 kv=0.22 kw = 553.543688603863 pf=0.92 status=variable vmaxpu=1.5 vminpu=0.93 daily="RES_2_SA" 
New "Load.BT_491_M2" bus1="UC1855.1.4" phases=1 conn=delta model=3 kv=0.22 kw = 553.543688603863 pf=0.92 status=variable vmaxpu=1.5 vminpu=0.93 daily="RES_2_SA"
 
New "Load.BT_1491_M1" bus1="UC1136.2.4" phases=1 conn=delta model=2 kv=0.22 kw = 430.6030401673931 pf=0.92 status=variable vmaxpu=1.5 vminpu=0.93 daily="RES_7_SA" 
New "Load.BT_1491_M2" bus1="UC1136.2.4" phases=1 conn=delta model=3 kv=0.22 kw = 430.6030401673931 pf=0.92 status=variable vmaxpu=1.5 vminpu=0.93 daily="RES_7_SA"
 
New "Load.BT_2368_M1" bus1="UC9732.2.4" phases=1 conn=delta model=2 kv=0.22 kw = 152.2810024657334 pf=0.92 status=variable vmaxpu=1.5 vminpu=0.93 daily="RES_9_SA" 
New "Load.BT_2368_M2" bus1="UC9732.2.4" phases=1 conn=delta model=3 kv=0.22 kw = 152.2810024657334 pf=0.92 status=variable vmaxpu=1.5 vminpu=0.93 daily="RES_9_SA"
 
New "Load.BT_8141_M1" bus1="UC15851.3.4" phases=1 conn=delta model=2 kv=0.22 kw = 89.70896670154022 pf=0.92 status=variable vmaxpu=1.5 vminpu=0.93 daily="RES_7_SA" 
New "Load.BT_8141_M2" bus1="UC15851.3.4" phases=1 conn=delta model=3 kv=0.22 kw = 89.70896670154022 pf=0.92 status=variable vmaxpu=1.5 vminpu=0.93 daily="RES_7_SA"
 
New "Load.BT_7354_M1" bus1="UC15850.3.1.4" phases=2 conn=delta model=2 kv=0.38 kw = 37.6045354895561 pf=0.92 status=variable vmaxpu=1.5 vminpu=0.93 daily="RES_1_SA" 
New "Load.BT_7354_M2" bus1="UC15850.3.1.4" phases=2 conn=delta model=3 kv=0.38 kw = 37.6045354895561 pf=0.92 status=variable vmaxpu=1.5 vminpu=0.93 daily="RES_1_SA"
 
New "Load.BT_918_M1" bus1="UC15688.1.4" phases=1 conn=delta model=2 kv=0.22 kw = 39.75878496386982 pf=0.92 status=variable vmaxpu=1.5 vminpu=0.93 daily="RES_3_SA" 
New "Load.BT_918_M2" bus1="UC15688.1.4" phases=1 conn=delta model=3 kv=0.22 kw = 39.75878496386982 pf=0.92 status=variable vmaxpu=1.5 vminpu=0.93 daily="RES_3_SA"
 
New "Load.BT_2932_M1" bus1="UC10153.2.4" phases=1 conn=delta model=2 kv=0.22 kw = 849.3922242281279 pf=0.92 status=variable vmaxpu=1.5 vminpu=0.93 daily="RES_3_SA" 
New "Load.BT_2932_M2" bus1="UC10153.2.4" phases=1 conn=delta model=3 kv=0.22 kw = 849.3922242281279 pf=0.92 status=variable vmaxpu=1.5 vminpu=0.93 daily="RES_3_SA"
 
New "Load.BT_6949_M1" bus1="UC15497.1.4" phases=1 conn=delta model=2 kv=0.22 kw = 691.1296921296786 pf=0.92 status=variable vmaxpu=1.5 vminpu=0.93 daily="RES_2_SA" 
New "Load.BT_6949_M2" bus1="UC15497.1.4" phases=1 conn=delta model=3 kv=0.22 kw = 691.1296921296786 pf=0.92 status=variable vmaxpu=1.5 vminpu=0.93 daily="RES_2_SA"
 
New "Load.BT_6949_M1" bus1="UC15497.3.4" phases=1 conn=delta model=2 kv=0.22 kw = 67.19316451260764 pf=0.92 status=variable vmaxpu=1.5 vminpu=0.93 daily="RES_2_SA" 
New "Load.BT_6949_M2" bus1="UC15497.3.4" phases=1 conn=delta model=3 kv=0.22 kw = 67.19316451260764 pf=0.92 status=variable vmaxpu=1.5 vminpu=0.93 daily="RES_2_SA"
 
New "Load.BT_1531_M1" bus1="UC5544.2.4" phases=1 conn=delta model=2 kv=0.22 kw = 668.7319706254759 pf=0.92 status=variable vmaxpu=1.5 vminpu=0.93 daily="RES_2_SA" 
New "Load.BT_1531_M2" bus1="UC5544.2.4" phases=1 conn=delta model=3 kv=0.22 kw = 668.7319706254759 pf=0.92 status=variable vmaxpu=1.5 vminpu=0.93 daily="RES_2_SA"
 
New "Load.BT_293_M1" bus1="UC15499.3.4" phases=1 conn=delta model=2 kv=0.22 kw = 428.7563830804487 pf=0.92 status=variable vmaxpu=1.5 vminpu=0.93 daily="RES_2_SA" 
New "Load.BT_293_M2" bus1="UC15499.3.4" phases=1 conn=delta model=3 kv=0.22 kw = 428.7563830804487 pf=0.92 status=variable vmaxpu=1.5 vminpu=0.93 daily="RES_2_SA"
 
New "Load.BT_1432_M1" bus1="UC8603.1.2.3.4" phases=3 conn=delta model=2 kv=0.38 kw = 1370.5841102034883 pf=0.92 status=variable vmaxpu=1.5 vminpu=0.93 daily="COM_1_SA" 
New "Load.BT_1432_M2" bus1="UC8603.1.2.3.4" phases=3 conn=delta model=3 kv=0.38 kw = 1370.5841102034883 pf=0.92 status=variable vmaxpu=1.5 vminpu=0.93 daily="COM_1_SA"
 
New "Load.BT_8049_M1" bus1="UC15509.1.2.4" phases=2 conn=delta model=2 kv=0.38 kw = 15.998372503001818 pf=0.92 status=variable vmaxpu=1.5 vminpu=0.93 daily="RES_2_SA" 
New "Load.BT_8049_M2" bus1="UC15509.1.2.4" phases=2 conn=delta model=3 kv=0.38 kw = 15.998372503001818 pf=0.92 status=variable vmaxpu=1.5 vminpu=0.93 daily="RES_2_SA"
 
New "Load.BT_2623_M1" bus1="UC15510.1.2.3.4" phases=3 conn=delta model=2 kv=0.38 kw = 851.9847171535198 pf=0.92 status=variable vmaxpu=1.5 vminpu=0.93 daily="COM_1_SA" 
New "Load.BT_2623_M2" bus1="UC15510.1.2.3.4" phases=3 conn=delta model=3 kv=0.38 kw = 851.9847171535198 pf=0.92 status=variable vmaxpu=1.5 vminpu=0.93 daily="COM_1_SA"
 
New "Load.BT_3013_M1" bus1="UC6671.1.4" phases=1 conn=delta model=2 kv=0.22 kw = 236.77591304442691 pf=0.92 status=variable vmaxpu=1.5 vminpu=0.93 daily="RES_2_SA" 
New "Load.BT_3013_M2" bus1="UC6671.1.4" phases=1 conn=delta model=3 kv=0.22 kw = 236.77591304442691 pf=0.92 status=variable vmaxpu=1.5 vminpu=0.93 daily="RES_2_SA"
 
New "Load.BT_6930_M1" bus1="UC9626.3.4" phases=1 conn=delta model=2 kv=0.22 kw = 396.75963807444504 pf=0.92 status=variable vmaxpu=1.5 vminpu=0.93 daily="RES_2_SA" 
New "Load.BT_6930_M2" bus1="UC9626.3.4" phases=1 conn=delta model=3 kv=0.22 kw = 396.75963807444504 pf=0.92 status=variable vmaxpu=1.5 vminpu=0.93 daily="RES_2_SA"
 
New "Load.BT_2941_M1" bus1="UC13002.3.4" phases=1 conn=delta model=2 kv=0.22 kw = 90.19119879129889 pf=0.92 status=variable vmaxpu=1.5 vminpu=0.93 daily="COM_1_SA" 
New "Load.BT_2941_M2" bus1="UC13002.3.4" phases=1 conn=delta model=3 kv=0.22 kw = 90.19119879129889 pf=0.92 status=variable vmaxpu=1.5 vminpu=0.93 daily="COM_1_SA"
 
New "Load.BT_7308_M1" bus1="UC13331.1.4" phases=1 conn=delta model=2 kv=0.22 kw = 12.798698002401455 pf=0.92 status=variable vmaxpu=1.5 vminpu=0.93 daily="RES_2_SA" 
New "Load.BT_7308_M2" bus1="UC13331.1.4" phases=1 conn=delta model=3 kv=0.22 kw = 12.798698002401455 pf=0.92 status=variable vmaxpu=1.5 vminpu=0.93 daily="RES_2_SA"
 
New "Load.BT_3010_M1" bus1="UC14890.1.2.3.4" phases=3 conn=delta model=2 kv=0.38 kw = 291.17037955463314 pf=0.92 status=variable vmaxpu=1.5 vminpu=0.93 daily="RES_2_SA" 
New "Load.BT_3010_M2" bus1="UC14890.1.2.3.4" phases=3 conn=delta model=3 kv=0.38 kw = 291.17037955463314 pf=0.92 status=variable vmaxpu=1.5 vminpu=0.93 daily="RES_2_SA"
 
New "Load.BT_3010_M1" bus1="UC14890.1.2.3.4" phases=3 conn=delta model=2 kv=0.38 kw = 345.5648460648393 pf=0.92 status=variable vmaxpu=1.5 vminpu=0.93 daily="RES_2_SA" 
New "Load.BT_3010_M2" bus1="UC14890.1.2.3.4" phases=3 conn=delta model=3 kv=0.38 kw = 345.5648460648393 pf=0.92 status=variable vmaxpu=1.5 vminpu=0.93 daily="RES_2_SA"
 
New "Load.BT_1267_M1" bus1="UC15137.1.2.3.4" phases=3 conn=delta model=2 kv=0.38 kw = 5234.310644137881 pf=0.92 status=variable vmaxpu=1.5 vminpu=0.93 daily="IND_1_SA" 
New "Load.BT_1267_M2" bus1="UC15137.1.2.3.4" phases=3 conn=delta model=3 kv=0.38 kw = 5234.310644137881 pf=0.92 status=variable vmaxpu=1.5 vminpu=0.93 daily="IND_1_SA"
 
New "Load.BT_1115_M1" bus1="UC7113.1.4" phases=1 conn=delta model=2 kv=0.22 kw = 393.5599635738447 pf=0.92 status=variable vmaxpu=1.5 vminpu=0.93 daily="RES_2_SA" 
New "Load.BT_1115_M2" bus1="UC7113.1.4" phases=1 conn=delta model=3 kv=0.22 kw = 393.5599635738447 pf=0.92 status=variable vmaxpu=1.5 vminpu=0.93 daily="RES_2_SA"
 
New "Load.BT_7226_M1" bus1="UC9718.1.4" phases=1 conn=delta model=2 kv=0.22 kw = 188.78079553542145 pf=0.92 status=variable vmaxpu=1.5 vminpu=0.93 daily="RES_2_SA" 
New "Load.BT_7226_M2" bus1="UC9718.1.4" phases=1 conn=delta model=3 kv=0.22 kw = 188.78079553542145 pf=0.92 status=variable vmaxpu=1.5 vminpu=0.93 daily="RES_2_SA"
 
New "Load.BT_7764_M1" bus1="UC10594.3.1.4" phases=2 conn=delta model=2 kv=0.38 kw = 246.1062378351646 pf=0.92 status=variable vmaxpu=1.5 vminpu=0.93 daily="RES_11_SA" 
New "Load.BT_7764_M2" bus1="UC10594.3.1.4" phases=2 conn=delta model=3 kv=0.38 kw = 246.1062378351646 pf=0.92 status=variable vmaxpu=1.5 vminpu=0.93 daily="RES_11_SA"
 
New "Load.BT_1983_M1" bus1="UC15149.1.2.4" phases=2 conn=delta model=2 kv=0.38 kw = 326.3667990612371 pf=0.92 status=variable vmaxpu=1.5 vminpu=0.93 daily="RES_2_SA" 
New "Load.BT_1983_M2" bus1="UC15149.1.2.4" phases=2 conn=delta model=3 kv=0.38 kw = 326.3667990612371 pf=0.92 status=variable vmaxpu=1.5 vminpu=0.93 daily="RES_2_SA"
 
New "Load.BT_6423_M1" bus1="UC13667.1.2.3.4" phases=3 conn=delta model=2 kv=0.38 kw = 753.5553202929378 pf=0.92 status=variable vmaxpu=1.5 vminpu=0.93 daily="RES_7_SA" 
New "Load.BT_6423_M2" bus1="UC13667.1.2.3.4" phases=3 conn=delta model=3 kv=0.38 kw = 753.5553202929378 pf=0.92 status=variable vmaxpu=1.5 vminpu=0.93 daily="RES_7_SA"
 
New "Load.BT_6614_M1" bus1="UC15154.3.4" phases=1 conn=delta model=2 kv=0.22 kw = 813.6254042285774 pf=0.92 status=variable vmaxpu=1.5 vminpu=0.93 daily="RES_1_SA" 
New "Load.BT_6614_M2" bus1="UC15154.3.4" phases=1 conn=delta model=3 kv=0.22 kw = 813.6254042285774 pf=0.92 status=variable vmaxpu=1.5 vminpu=0.93 daily="RES_1_SA"
 
New "Load.BT_8374_M1" bus1="UC15150.1.2.3.4" phases=3 conn=delta model=2 kv=0.38 kw = 777.5209036458883 pf=0.92 status=variable vmaxpu=1.5 vminpu=0.93 daily="RES_2_SA" 
New "Load.BT_8374_M2" bus1="UC15150.1.2.3.4" phases=3 conn=delta model=3 kv=0.38 kw = 777.5209036458883 pf=0.92 status=variable vmaxpu=1.5 vminpu=0.93 daily="RES_2_SA"
 
New "Load.BT_3034_M1" bus1="UC14783.1.2.3.4" phases=3 conn=delta model=2 kv=0.38 kw = 259.1736345486294 pf=0.92 status=variable vmaxpu=1.5 vminpu=0.93 daily="RES_2_SA" 
New "Load.BT_3034_M2" bus1="UC14783.1.2.3.4" phases=3 conn=delta model=3 kv=0.38 kw = 259.1736345486294 pf=0.92 status=variable vmaxpu=1.5 vminpu=0.93 daily="RES_2_SA"
 
New "Load.BT_1488_M1" bus1="UC10551.2.4" phases=1 conn=delta model=2 kv=0.22 kw = 383.8354168071374 pf=0.92 status=variable vmaxpu=1.5 vminpu=0.93 daily="RES_11_SA" 
New "Load.BT_1488_M2" bus1="UC10551.2.4" phases=1 conn=delta model=3 kv=0.22 kw = 383.8354168071374 pf=0.92 status=variable vmaxpu=1.5 vminpu=0.93 daily="RES_11_SA"
 
New "Load.BT_927_M1" bus1="UC15130.3.4" phases=1 conn=delta model=2 kv=0.22 kw = 41.87448515310305 pf=0.92 status=variable vmaxpu=1.5 vminpu=0.93 daily="COM_1_SA" 
New "Load.BT_927_M2" bus1="UC15130.3.4" phases=1 conn=delta model=3 kv=0.22 kw = 41.87448515310305 pf=0.92 status=variable vmaxpu=1.5 vminpu=0.93 daily="COM_1_SA"
 
New "Load.BT_15_M1" bus1="UC11345.3.4" phases=1 conn=delta model=2 kv=0.22 kw = 197.25609027935764 pf=0.92 status=variable vmaxpu=1.5 vminpu=0.93 daily="RES_8_SA" 
New "Load.BT_15_M2" bus1="UC11345.3.4" phases=1 conn=delta model=3 kv=0.22 kw = 197.25609027935764 pf=0.92 status=variable vmaxpu=1.5 vminpu=0.93 daily="RES_8_SA"
 
New "Load.BT_6637_M1" bus1="UC1871.2.4" phases=1 conn=delta model=2 kv=0.22 kw = 537.1376221448454 pf=0.92 status=variable vmaxpu=1.5 vminpu=0.93 daily="RES_13_SA" 
New "Load.BT_6637_M2" bus1="UC1871.2.4" phases=1 conn=delta model=3 kv=0.22 kw = 537.1376221448454 pf=0.92 status=variable vmaxpu=1.5 vminpu=0.93 daily="RES_13_SA"
 
New "Load.BT_387_M1" bus1="UC15581.1.2.3.4" phases=3 conn=delta model=2 kv=0.38 kw = 527.707509520454 pf=0.92 status=variable vmaxpu=1.5 vminpu=0.93 daily="RES_3_SA" 
New "Load.BT_387_M2" bus1="UC15581.1.2.3.4" phases=3 conn=delta model=3 kv=0.38 kw = 527.707509520454 pf=0.92 status=variable vmaxpu=1.5 vminpu=0.93 daily="RES_3_SA"
 
New "Load.BT_8263_M1" bus1="UC14653.1.2.3.4" phases=3 conn=delta model=2 kv=0.38 kw = 1199.9924189095257 pf=0.92 status=variable vmaxpu=1.5 vminpu=0.93 daily="RES_3_SA" 
New "Load.BT_8263_M2" bus1="UC14653.1.2.3.4" phases=3 conn=delta model=3 kv=0.38 kw = 1199.9924189095257 pf=0.92 status=variable vmaxpu=1.5 vminpu=0.93 daily="RES_3_SA"
 
New "Load.BT_1454_M1" bus1="UC8216.3.4" phases=1 conn=delta model=2 kv=0.22 kw = 466.26211457629154 pf=0.92 status=variable vmaxpu=1.5 vminpu=0.93 daily="RES_3_SA" 
New "Load.BT_1454_M2" bus1="UC8216.3.4" phases=1 conn=delta model=3 kv=0.22 kw = 466.26211457629154 pf=0.92 status=variable vmaxpu=1.5 vminpu=0.93 daily="RES_3_SA"
 
New "Load.BT_1314_M1" bus1="UC16125.1.2.3.4" phases=3 conn=delta model=2 kv=0.38 kw = 125.59255338215632 pf=0.92 status=variable vmaxpu=1.5 vminpu=0.93 daily="RES_7_SA" 
New "Load.BT_1314_M2" bus1="UC16125.1.2.3.4" phases=3 conn=delta model=3 kv=0.38 kw = 125.59255338215632 pf=0.92 status=variable vmaxpu=1.5 vminpu=0.93 daily="RES_7_SA"
 
New "Load.BT_8044_M1" bus1="UC16120.1.2.3.4" phases=3 conn=delta model=2 kv=0.38 kw = 4590.332445828607 pf=0.92 status=variable vmaxpu=1.5 vminpu=0.93 daily="RES_3_SA" 
New "Load.BT_8044_M2" bus1="UC16120.1.2.3.4" phases=3 conn=delta model=3 kv=0.38 kw = 4590.332445828607 pf=0.92 status=variable vmaxpu=1.5 vminpu=0.93 daily="RES_3_SA"
 
New "Load.BT_6919_M1" bus1="UC16117.1.4" phases=1 conn=delta model=2 kv=0.22 kw = 896.3798791854286 pf=0.92 status=variable vmaxpu=1.5 vminpu=0.93 daily="RES_3_SA" 
New "Load.BT_6919_M2" bus1="UC16117.1.4" phases=1 conn=delta model=3 kv=0.22 kw = 896.3798791854286 pf=0.92 status=variable vmaxpu=1.5 vminpu=0.93 daily="RES_3_SA"
 
New "Load.BT_1445_M1" bus1="UC2901.2.4" phases=1 conn=delta model=2 kv=0.22 kw = 1163.8480689423711 pf=0.92 status=variable vmaxpu=1.5 vminpu=0.93 daily="RES_3_SA" 
New "Load.BT_1445_M2" bus1="UC2901.2.4" phases=1 conn=delta model=3 kv=0.22 kw = 1163.8480689423711 pf=0.92 status=variable vmaxpu=1.5 vminpu=0.93 daily="RES_3_SA"
 
New "Load.BT_3107_M1" bus1="UC8431.2.4" phases=1 conn=delta model=2 kv=0.22 kw = 177.10731483905647 pf=0.92 status=variable vmaxpu=1.5 vminpu=0.93 daily="RES_3_SA" 
New "Load.BT_3107_M2" bus1="UC8431.2.4" phases=1 conn=delta model=3 kv=0.22 kw = 177.10731483905647 pf=0.92 status=variable vmaxpu=1.5 vminpu=0.93 daily="RES_3_SA"
 
New "Load.BT_8422_M1" bus1="UC16128.1.4" phases=1 conn=delta model=2 kv=0.22 kw = 58.310828356001146 pf=0.92 status=variable vmaxpu=1.5 vminpu=0.93 daily="RES_7_SA" 
New "Load.BT_8422_M2" bus1="UC16128.1.4" phases=1 conn=delta model=3 kv=0.22 kw = 58.310828356001146 pf=0.92 status=variable vmaxpu=1.5 vminpu=0.93 daily="RES_7_SA"
 
New "Load.BT_8514_M1" bus1="UC15685.1.2.3.4" phases=3 conn=delta model=2 kv=0.38 kw = 191.65629743151013 pf=0.92 status=variable vmaxpu=1.5 vminpu=0.93 daily="COM_1_SA" 
New "Load.BT_8514_M2" bus1="UC15685.1.2.3.4" phases=3 conn=delta model=3 kv=0.38 kw = 191.65629743151013 pf=0.92 status=variable vmaxpu=1.5 vminpu=0.93 daily="COM_1_SA"
 
New "Load.BT_2932_M1" bus1="UC10153.2.4" phases=1 conn=delta model=2 kv=0.22 kw = 460.75312808645236 pf=0.92 status=variable vmaxpu=1.5 vminpu=0.93 daily="RES_2_SA" 
New "Load.BT_2932_M2" bus1="UC10153.2.4" phases=1 conn=delta model=3 kv=0.22 kw = 460.75312808645236 pf=0.92 status=variable vmaxpu=1.5 vminpu=0.93 daily="RES_2_SA"
 
New "Load.BT_7928_M1" bus1="UC15838.2.4" phases=1 conn=delta model=2 kv=0.22 kw = 0.0 pf=0.92 status=variable vmaxpu=1.5 vminpu=0.93 daily="RES_2_SA" 
New "Load.BT_7928_M2" bus1="UC15838.2.4" phases=1 conn=delta model=3 kv=0.22 kw = 0.0 pf=0.92 status=variable vmaxpu=1.5 vminpu=0.93 daily="RES_2_SA"
 
New "Load.BT_7378_M1" bus1="UC15839.2.3.4" phases=2 conn=delta model=2 kv=0.38 kw = 19.276076261485237 pf=0.92 status=variable vmaxpu=1.5 vminpu=0.93 daily="RES_9_SA" 
New "Load.BT_7378_M2" bus1="UC15839.2.3.4" phases=2 conn=delta model=3 kv=0.38 kw = 19.276076261485237 pf=0.92 status=variable vmaxpu=1.5 vminpu=0.93 daily="RES_9_SA"
 
New "Load.BT_2395_M1" bus1="UC14029.1.4" phases=1 conn=delta model=2 kv=0.22 kw = 515.1475945966586 pf=0.92 status=variable vmaxpu=1.5 vminpu=0.93 daily="RES_2_SA" 
New "Load.BT_2395_M2" bus1="UC14029.1.4" phases=1 conn=delta model=3 kv=0.22 kw = 515.1475945966586 pf=0.92 status=variable vmaxpu=1.5 vminpu=0.93 daily="RES_2_SA"
 
New "Load.BT_8159_M1" bus1="UC15841.2.4" phases=1 conn=delta model=2 kv=0.22 kw = 10.796484027814026 pf=0.92 status=variable vmaxpu=1.5 vminpu=0.93 daily="RES_4_SA" 
New "Load.BT_8159_M2" bus1="UC15841.2.4" phases=1 conn=delta model=3 kv=0.22 kw = 10.796484027814026 pf=0.92 status=variable vmaxpu=1.5 vminpu=0.93 daily="RES_4_SA"
 
New "Load.BT_1678_M1" bus1="UC358.3.1.4" phases=2 conn=delta model=2 kv=0.38 kw = 872.9219597300713 pf=0.92 status=variable vmaxpu=1.5 vminpu=0.93 daily="COM_1_SA" 
New "Load.BT_1678_M2" bus1="UC358.3.1.4" phases=2 conn=delta model=3 kv=0.38 kw = 872.9219597300713 pf=0.92 status=variable vmaxpu=1.5 vminpu=0.93 daily="COM_1_SA"
 
New "Load.BT_474_M1" bus1="UC6892.2.4" phases=1 conn=delta model=2 kv=0.22 kw = 211.178517039624 pf=0.92 status=variable vmaxpu=1.5 vminpu=0.93 daily="RES_2_SA" 
New "Load.BT_474_M2" bus1="UC6892.2.4" phases=1 conn=delta model=3 kv=0.22 kw = 211.178517039624 pf=0.92 status=variable vmaxpu=1.5 vminpu=0.93 daily="RES_2_SA"
 
New "Load.BT_3034_M1" bus1="UC14783.1.2.3.4" phases=3 conn=delta model=2 kv=0.38 kw = 214.37819154022435 pf=0.92 status=variable vmaxpu=1.5 vminpu=0.93 daily="RES_2_SA" 
New "Load.BT_3034_M2" bus1="UC14783.1.2.3.4" phases=3 conn=delta model=3 kv=0.38 kw = 214.37819154022435 pf=0.92 status=variable vmaxpu=1.5 vminpu=0.93 daily="RES_2_SA"
 
New "Load.BT_7427_M1" bus1="UC15490.2.4" phases=1 conn=delta model=2 kv=0.22 kw = 515.1475945966586 pf=0.92 status=variable vmaxpu=1.5 vminpu=0.93 daily="RES_2_SA" 
New "Load.BT_7427_M2" bus1="UC15490.2.4" phases=1 conn=delta model=3 kv=0.22 kw = 515.1475945966586 pf=0.92 status=variable vmaxpu=1.5 vminpu=0.93 daily="RES_2_SA"
 
New "Load.BT_6397_M1" bus1="UC15492.1.2.3.4" phases=3 conn=delta model=2 kv=0.38 kw = 67.19316451260764 pf=0.92 status=variable vmaxpu=1.5 vminpu=0.93 daily="RES_2_SA" 
New "Load.BT_6397_M2" bus1="UC15492.1.2.3.4" phases=3 conn=delta model=3 kv=0.38 kw = 67.19316451260764 pf=0.92 status=variable vmaxpu=1.5 vminpu=0.93 daily="RES_2_SA"
 
New "Load.BT_855_M1" bus1="UC15495.1.2.3.4" phases=3 conn=delta model=2 kv=0.38 kw = 233.53078258461318 pf=0.92 status=variable vmaxpu=1.5 vminpu=0.93 daily="COM_1_SA" 
New "Load.BT_855_M2" bus1="UC15495.1.2.3.4" phases=3 conn=delta model=3 kv=0.38 kw = 233.53078258461318 pf=0.92 status=variable vmaxpu=1.5 vminpu=0.93 daily="COM_1_SA"
 
New "Load.BT_937_M1" bus1="UC15493.2.4" phases=1 conn=delta model=2 kv=0.22 kw = 486.35052409125524 pf=0.92 status=variable vmaxpu=1.5 vminpu=0.93 daily="RES_2_SA" 
New "Load.BT_937_M2" bus1="UC15493.2.4" phases=1 conn=delta model=3 kv=0.22 kw = 486.35052409125524 pf=0.92 status=variable vmaxpu=1.5 vminpu=0.93 daily="RES_2_SA"
 
New "Load.BT_7261_M1" bus1="UC15496.3.4" phases=1 conn=delta model=2 kv=0.38 kw = 6.3993490012007275 pf=0.92 status=variable vmaxpu=1.5 vminpu=0.93 daily="RES_2_SA" 
New "Load.BT_7261_M2" bus1="UC15496.3.4" phases=1 conn=delta model=3 kv=0.38 kw = 6.3993490012007275 pf=0.92 status=variable vmaxpu=1.5 vminpu=0.93 daily="RES_2_SA"
 
New "Load.BT_358_M1" bus1="UC14400.1.4" phases=1 conn=delta model=2 kv=0.22 kw = 284.77103055343235 pf=0.92 status=variable vmaxpu=1.5 vminpu=0.93 daily="RES_2_SA" 
New "Load.BT_358_M2" bus1="UC14400.1.4" phases=1 conn=delta model=3 kv=0.22 kw = 284.77103055343235 pf=0.92 status=variable vmaxpu=1.5 vminpu=0.93 daily="RES_2_SA"
 
New "Load.BT_490_M1" bus1="UC6077.1.4" phases=1 conn=delta model=2 kv=0.22 kw = 470.35215158825343 pf=0.92 status=variable vmaxpu=1.5 vminpu=0.93 daily="RES_2_SA" 
New "Load.BT_490_M2" bus1="UC6077.1.4" phases=1 conn=delta model=3 kv=0.22 kw = 470.35215158825343 pf=0.92 status=variable vmaxpu=1.5 vminpu=0.93 daily="RES_2_SA"
 
New "Load.BT_1862_M1" bus1="UC7595.2.3.4" phases=2 conn=delta model=2 kv=0.38 kw = 1215.55649880587 pf=0.92 status=variable vmaxpu=1.5 vminpu=0.93 daily="RES_7_SA" 
New "Load.BT_1862_M2" bus1="UC7595.2.3.4" phases=2 conn=delta model=3 kv=0.38 kw = 1215.55649880587 pf=0.92 status=variable vmaxpu=1.5 vminpu=0.93 daily="RES_7_SA"
 
New "Load.BT_1488_M1" bus1="UC10551.3.4" phases=1 conn=delta model=2 kv=0.22 kw = 406.413970736969 pf=0.92 status=variable vmaxpu=1.5 vminpu=0.93 daily="RES_11_SA" 
New "Load.BT_1488_M2" bus1="UC10551.3.4" phases=1 conn=delta model=3 kv=0.22 kw = 406.413970736969 pf=0.92 status=variable vmaxpu=1.5 vminpu=0.93 daily="RES_11_SA"
 
New "Load.BT_2624_M1" bus1="UC8865.3.4" phases=1 conn=delta model=2 kv=0.22 kw = 285.71150114087527 pf=0.92 status=variable vmaxpu=1.5 vminpu=0.93 daily="RES_13_SA" 
New "Load.BT_2624_M2" bus1="UC8865.3.4" phases=1 conn=delta model=3 kv=0.22 kw = 285.71150114087527 pf=0.92 status=variable vmaxpu=1.5 vminpu=0.93 daily="RES_13_SA"
 
New "Load.BT_1840_M1" bus1="UC5847.2.4" phases=1 conn=delta model=2 kv=0.22 kw = 742.3244841392843 pf=0.92 status=variable vmaxpu=1.5 vminpu=0.93 daily="RES_2_SA" 
New "Load.BT_1840_M2" bus1="UC5847.2.4" phases=1 conn=delta model=3 kv=0.22 kw = 742.3244841392843 pf=0.92 status=variable vmaxpu=1.5 vminpu=0.93 daily="RES_2_SA"
 
New "Load.BT_1452_M1" bus1="UC8287.2.4" phases=1 conn=delta model=2 kv=0.22 kw = 637.7806200241849 pf=0.92 status=variable vmaxpu=1.5 vminpu=0.93 daily="COM_1_SA" 
New "Load.BT_1452_M2" bus1="UC8287.2.4" phases=1 conn=delta model=3 kv=0.22 kw = 637.7806200241849 pf=0.92 status=variable vmaxpu=1.5 vminpu=0.93 daily="COM_1_SA"
 
New "Load.BT_3034_M1" bus1="UC14783.1.2.3.4" phases=3 conn=delta model=2 kv=0.38 kw = 259.1736345486294 pf=0.92 status=variable vmaxpu=1.5 vminpu=0.93 daily="RES_2_SA" 
New "Load.BT_3034_M2" bus1="UC14783.1.2.3.4" phases=3 conn=delta model=3 kv=0.38 kw = 259.1736345486294 pf=0.92 status=variable vmaxpu=1.5 vminpu=0.93 daily="RES_2_SA"
 
New "Load.BT_929_M1" bus1="UC8105.2.4" phases=1 conn=delta model=2 kv=0.22 kw = 67.64339909347416 pf=0.92 status=variable vmaxpu=1.5 vminpu=0.93 daily="COM_1_SA" 
New "Load.BT_929_M2" bus1="UC8105.2.4" phases=1 conn=delta model=3 kv=0.22 kw = 67.64339909347416 pf=0.92 status=variable vmaxpu=1.5 vminpu=0.93 daily="COM_1_SA"
 
New "Load.BT_3034_M1" bus1="UC14783.1.2.3.4" phases=3 conn=delta model=2 kv=0.38 kw = 874.5152062529361 pf=0.92 status=variable vmaxpu=1.5 vminpu=0.93 daily="RES_4_SA" 
New "Load.BT_3034_M2" bus1="UC14783.1.2.3.4" phases=3 conn=delta model=3 kv=0.38 kw = 874.5152062529361 pf=0.92 status=variable vmaxpu=1.5 vminpu=0.93 daily="RES_4_SA"
 
New "Load.BT_8197_M1" bus1="UC11184.3.4" phases=1 conn=delta model=2 kv=0.22 kw = 268.6847917649962 pf=0.92 status=variable vmaxpu=1.5 vminpu=0.93 daily="RES_11_SA" 
New "Load.BT_8197_M2" bus1="UC11184.3.4" phases=1 conn=delta model=3 kv=0.22 kw = 268.6847917649962 pf=0.92 status=variable vmaxpu=1.5 vminpu=0.93 daily="RES_11_SA"
 
New "Load.BT_3010_M1" bus1="UC14890.1.2.3.4" phases=3 conn=delta model=2 kv=0.38 kw = 394.719453486777 pf=0.92 status=variable vmaxpu=1.5 vminpu=0.93 daily="RES_7_SA" 
New "Load.BT_3010_M2" bus1="UC14890.1.2.3.4" phases=3 conn=delta model=3 kv=0.38 kw = 394.719453486777 pf=0.92 status=variable vmaxpu=1.5 vminpu=0.93 daily="RES_7_SA"
 
New "Load.BT_377_M1" bus1="UC15109.1.4" phases=1 conn=delta model=2 kv=0.22 kw = 574.323814749584 pf=0.92 status=variable vmaxpu=1.5 vminpu=0.93 daily="RES_1_SA" 
New "Load.BT_377_M2" bus1="UC15109.1.4" phases=1 conn=delta model=3 kv=0.22 kw = 574.323814749584 pf=0.92 status=variable vmaxpu=1.5 vminpu=0.93 daily="RES_1_SA"
 
New "Load.BT_1750_M1" bus1="UC10549.2.4" phases=1 conn=delta model=2 kv=0.22 kw = 4.8316713638195825 pf=0.92 status=variable vmaxpu=1.5 vminpu=0.93 daily="COM_1_SA" 
New "Load.BT_1750_M2" bus1="UC10549.2.4" phases=1 conn=delta model=3 kv=0.22 kw = 4.8316713638195825 pf=0.92 status=variable vmaxpu=1.5 vminpu=0.93 daily="COM_1_SA"
 
New "Load.BT_639_M1" bus1="UC15090.3.4" phases=1 conn=delta model=2 kv=0.22 kw = 646.9838644120634 pf=0.92 status=variable vmaxpu=1.5 vminpu=0.93 daily="RES_3_SA" 
New "Load.BT_639_M2" bus1="UC15090.3.4" phases=1 conn=delta model=3 kv=0.22 kw = 646.9838644120634 pf=0.92 status=variable vmaxpu=1.5 vminpu=0.93 daily="RES_3_SA"
 
New "Load.BT_2214_M1" bus1="UC11074.2.4" phases=1 conn=delta model=2 kv=0.22 kw = 126.50522488504033 pf=0.92 status=variable vmaxpu=1.5 vminpu=0.93 daily="RES_3_SA" 
New "Load.BT_2214_M2" bus1="UC11074.2.4" phases=1 conn=delta model=3 kv=0.22 kw = 126.50522488504033 pf=0.92 status=variable vmaxpu=1.5 vminpu=0.93 daily="RES_3_SA"
 
New "Load.BT_8198_M1" bus1="UC15673.2.3.4" phases=2 conn=delta model=2 kv=0.38 kw = 899.9943141821441 pf=0.92 status=variable vmaxpu=1.5 vminpu=0.93 daily="RES_3_SA" 
New "Load.BT_8198_M2" bus1="UC15673.2.3.4" phases=2 conn=delta model=3 kv=0.38 kw = 899.9943141821441 pf=0.92 status=variable vmaxpu=1.5 vminpu=0.93 daily="RES_3_SA"
 
New "Load.BT_6795_M1" bus1="UC14821.3.4" phases=1 conn=delta model=2 kv=0.22 kw = 310.8414097175277 pf=0.92 status=variable vmaxpu=1.5 vminpu=0.93 daily="RES_3_SA" 
New "Load.BT_6795_M2" bus1="UC14821.3.4" phases=1 conn=delta model=3 kv=0.22 kw = 310.8414097175277 pf=0.92 status=variable vmaxpu=1.5 vminpu=0.93 daily="RES_3_SA"
 
New "Load.BT_768_M1" bus1="UC12804.1.4" phases=1 conn=delta model=2 kv=0.22 kw = 314.45584471424314 pf=0.92 status=variable vmaxpu=1.5 vminpu=0.93 daily="RES_3_SA" 
New "Load.BT_768_M2" bus1="UC12804.1.4" phases=1 conn=delta model=3 kv=0.22 kw = 314.45584471424314 pf=0.92 status=variable vmaxpu=1.5 vminpu=0.93 daily="RES_3_SA"
 
New "Load.BT_539_M1" bus1="UC11814.2.4" phases=1 conn=delta model=2 kv=0.22 kw = 798.3928656069061 pf=0.92 status=variable vmaxpu=1.5 vminpu=0.93 daily="RES_6_SA" 
New "Load.BT_539_M2" bus1="UC11814.2.4" phases=1 conn=delta model=3 kv=0.22 kw = 798.3928656069061 pf=0.92 status=variable vmaxpu=1.5 vminpu=0.93 daily="RES_6_SA"
 
New "Load.BT_6846_M1" bus1="UC15821.1.2.3.4" phases=3 conn=delta model=2 kv=0.38 kw = 694.329366630279 pf=0.92 status=variable vmaxpu=1.5 vminpu=0.93 daily="RES_2_SA" 
New "Load.BT_6846_M2" bus1="UC15821.1.2.3.4" phases=3 conn=delta model=3 kv=0.38 kw = 694.329366630279 pf=0.92 status=variable vmaxpu=1.5 vminpu=0.93 daily="RES_2_SA"
 
New "Load.BT_826_M1" bus1="UC7495.2.4" phases=1 conn=delta model=2 kv=0.22 kw = 669.9917624496488 pf=0.92 status=variable vmaxpu=1.5 vminpu=0.93 daily="COM_1_SA" 
New "Load.BT_826_M2" bus1="UC7495.2.4" phases=1 conn=delta model=3 kv=0.22 kw = 669.9917624496488 pf=0.92 status=variable vmaxpu=1.5 vminpu=0.93 daily="COM_1_SA"
 
New "Load.BT_84_M1" bus1="UC5102.3.4" phases=1 conn=delta model=2 kv=0.22 kw = 806.8864067303838 pf=0.92 status=variable vmaxpu=1.5 vminpu=0.93 daily="RES_6_SA" 
New "Load.BT_84_M2" bus1="UC5102.3.4" phases=1 conn=delta model=3 kv=0.22 kw = 806.8864067303838 pf=0.92 status=variable vmaxpu=1.5 vminpu=0.93 daily="RES_6_SA"
 
New "Load.BT_2347_M1" bus1="UC1753.3.4" phases=1 conn=delta model=2 kv=0.22 kw = 73.59251351380837 pf=0.92 status=variable vmaxpu=1.5 vminpu=0.93 daily="RES_2_SA" 
New "Load.BT_2347_M2" bus1="UC1753.3.4" phases=1 conn=delta model=3 kv=0.22 kw = 73.59251351380837 pf=0.92 status=variable vmaxpu=1.5 vminpu=0.93 daily="RES_2_SA"
 
New "Load.BT_8197_M1" bus1="UC11184.3.4" phases=1 conn=delta model=2 kv=0.22 kw = 102.16320418587176 pf=0.92 status=variable vmaxpu=1.5 vminpu=0.93 daily="RES_9_SA" 
New "Load.BT_8197_M2" bus1="UC11184.3.4" phases=1 conn=delta model=3 kv=0.22 kw = 102.16320418587176 pf=0.92 status=variable vmaxpu=1.5 vminpu=0.93 daily="RES_9_SA"
 
New "Load.BT_2623_M1" bus1="UC15510.1.2.3.4" phases=3 conn=delta model=2 kv=0.38 kw = 9.463544281087042 pf=0.92 status=variable vmaxpu=1.5 vminpu=0.93 daily="COM_12_SA" 
New "Load.BT_2623_M2" bus1="UC15510.1.2.3.4" phases=3 conn=delta model=3 kv=0.38 kw = 9.463544281087042 pf=0.92 status=variable vmaxpu=1.5 vminpu=0.93 daily="COM_12_SA"
 
New "Load.BT_8426_M1" bus1="UC15793.1.2.3.4" phases=3 conn=delta model=2 kv=0.38 kw = 49.92727075946902 pf=0.92 status=variable vmaxpu=1.5 vminpu=0.93 daily="COM_1_SA" 
New "Load.BT_8426_M2" bus1="UC15793.1.2.3.4" phases=3 conn=delta model=3 kv=0.38 kw = 49.92727075946902 pf=0.92 status=variable vmaxpu=1.5 vminpu=0.93 daily="COM_1_SA"
 
New "Load.BT_7702_M1" bus1="UC15796.3.4" phases=1 conn=delta model=2 kv=0.22 kw = 179.18177203362038 pf=0.92 status=variable vmaxpu=1.5 vminpu=0.93 daily="RES_2_SA" 
New "Load.BT_7702_M2" bus1="UC15796.3.4" phases=1 conn=delta model=3 kv=0.22 kw = 179.18177203362038 pf=0.92 status=variable vmaxpu=1.5 vminpu=0.93 daily="RES_2_SA"
 
New "Load.BT_236_M1" bus1="UC15798.1.2.3.4" phases=3 conn=delta model=2 kv=0.38 kw = 23.272390391136415 pf=0.92 status=variable vmaxpu=1.5 vminpu=0.93 daily="RES_12_SA" 
New "Load.BT_236_M2" bus1="UC15798.1.2.3.4" phases=3 conn=delta model=3 kv=0.38 kw = 23.272390391136415 pf=0.92 status=variable vmaxpu=1.5 vminpu=0.93 daily="RES_12_SA"
 
New "Load.BT_146_M1" bus1="UC10578.1.4" phases=1 conn=delta model=2 kv=0.22 kw = 130.07800171723335 pf=0.92 status=variable vmaxpu=1.5 vminpu=0.93 daily="RES_7_SA" 
New "Load.BT_146_M2" bus1="UC10578.1.4" phases=1 conn=delta model=3 kv=0.22 kw = 130.07800171723335 pf=0.92 status=variable vmaxpu=1.5 vminpu=0.93 daily="RES_7_SA"
 
New "Load.BT_3019_M1" bus1="UC9738.1.4" phases=1 conn=delta model=2 kv=0.22 kw = 2836.84273524156 pf=0.92 status=variable vmaxpu=1.5 vminpu=0.93 daily="RES_6_SA" 
New "Load.BT_3019_M2" bus1="UC9738.1.4" phases=1 conn=delta model=3 kv=0.22 kw = 2836.84273524156 pf=0.92 status=variable vmaxpu=1.5 vminpu=0.93 daily="RES_6_SA"
 
New "Load.BT_2092_M1" bus1="UC6242.2.4" phases=1 conn=delta model=2 kv=0.22 kw = 124.78730552341419 pf=0.92 status=variable vmaxpu=1.5 vminpu=0.93 daily="RES_2_SA" 
New "Load.BT_2092_M2" bus1="UC6242.2.4" phases=1 conn=delta model=3 kv=0.22 kw = 124.78730552341419 pf=0.92 status=variable vmaxpu=1.5 vminpu=0.93 daily="RES_2_SA"
 
New "Load.BT_539_M1" bus1="UC11814.2.4" phases=1 conn=delta model=2 kv=0.22 kw = 138.78774908269372 pf=0.92 status=variable vmaxpu=1.5 vminpu=0.93 daily="RES_9_SA" 
New "Load.BT_539_M2" bus1="UC11814.2.4" phases=1 conn=delta model=3 kv=0.22 kw = 138.78774908269372 pf=0.92 status=variable vmaxpu=1.5 vminpu=0.93 daily="RES_9_SA"
 
New "Load.BT_1424_M1" bus1="UC6619.3.4" phases=1 conn=delta model=2 kv=0.22 kw = 342.36517156423895 pf=0.92 status=variable vmaxpu=1.5 vminpu=0.93 daily="RES_2_SA" 
New "Load.BT_1424_M2" bus1="UC6619.3.4" phases=1 conn=delta model=3 kv=0.22 kw = 342.36517156423895 pf=0.92 status=variable vmaxpu=1.5 vminpu=0.93 daily="RES_2_SA"
 
New "Load.BT_6443_M1" bus1="UC15805.1.4" phases=1 conn=delta model=2 kv=0.22 kw = 9.599023501801092 pf=0.92 status=variable vmaxpu=1.5 vminpu=0.93 daily="RES_2_SA" 
New "Load.BT_6443_M2" bus1="UC15805.1.4" phases=1 conn=delta model=3 kv=0.22 kw = 9.599023501801092 pf=0.92 status=variable vmaxpu=1.5 vminpu=0.93 daily="RES_2_SA"
 
New "Load.BT_8141_M1" bus1="UC15807.1.2.3.4" phases=3 conn=delta model=2 kv=0.38 kw = 29115.651638376807 pf=0.92 status=variable vmaxpu=1.5 vminpu=0.93 daily="COM_1_SA" 
New "Load.BT_8141_M2" bus1="UC15807.1.2.3.4" phases=3 conn=delta model=3 kv=0.38 kw = 29115.651638376807 pf=0.92 status=variable vmaxpu=1.5 vminpu=0.93 daily="COM_1_SA"
 
New "Load.BT_296_M1" bus1="UC14335.2.4" phases=1 conn=delta model=2 kv=0.22 kw = 345.5648460648393 pf=0.92 status=variable vmaxpu=1.5 vminpu=0.93 daily="RES_2_SA" 
New "Load.BT_296_M2" bus1="UC14335.2.4" phases=1 conn=delta model=3 kv=0.22 kw = 345.5648460648393 pf=0.92 status=variable vmaxpu=1.5 vminpu=0.93 daily="RES_2_SA"
 
New "Load.BT_121_M1" bus1="UC12650.2.3.4" phases=2 conn=delta model=2 kv=0.38 kw = 465.1182109545312 pf=0.92 status=variable vmaxpu=1.5 vminpu=0.93 daily="RES_11_SA" 
New "Load.BT_121_M2" bus1="UC12650.2.3.4" phases=2 conn=delta model=3 kv=0.38 kw = 465.1182109545312 pf=0.92 status=variable vmaxpu=1.5 vminpu=0.93 daily="RES_11_SA"
 
New "Load.BT_12_M1" bus1="UC10383.2.4" phases=1 conn=delta model=2 kv=0.22 kw = 346.96937270673425 pf=0.92 status=variable vmaxpu=1.5 vminpu=0.93 daily="RES_9_SA" 
New "Load.BT_12_M2" bus1="UC10383.2.4" phases=1 conn=delta model=3 kv=0.22 kw = 346.96937270673425 pf=0.92 status=variable vmaxpu=1.5 vminpu=0.93 daily="RES_9_SA"
 
New "Load.BT_8263_M1" bus1="UC14653.1.2.3.4" phases=3 conn=delta model=2 kv=0.38 kw = 809.517648651892 pf=0.92 status=variable vmaxpu=1.5 vminpu=0.93 daily="RES_2_SA" 
New "Load.BT_8263_M2" bus1="UC14653.1.2.3.4" phases=3 conn=delta model=3 kv=0.38 kw = 809.517648651892 pf=0.92 status=variable vmaxpu=1.5 vminpu=0.93 daily="RES_2_SA"
 
New "Load.BT_2343_M1" bus1="UC5977.2.4" phases=1 conn=delta model=2 kv=0.22 kw = 150.3847015282171 pf=0.92 status=variable vmaxpu=1.5 vminpu=0.93 daily="RES_2_SA" 
New "Load.BT_2343_M2" bus1="UC5977.2.4" phases=1 conn=delta model=3 kv=0.22 kw = 150.3847015282171 pf=0.92 status=variable vmaxpu=1.5 vminpu=0.93 daily="RES_2_SA"
 
New "Load.BT_3034_M1" bus1="UC14783.1.2.3.4" phases=3 conn=delta model=2 kv=0.38 kw = 383.9609400720436 pf=0.92 status=variable vmaxpu=1.5 vminpu=0.93 daily="RES_2_SA" 
New "Load.BT_3034_M2" bus1="UC14783.1.2.3.4" phases=3 conn=delta model=3 kv=0.38 kw = 383.9609400720436 pf=0.92 status=variable vmaxpu=1.5 vminpu=0.93 daily="RES_2_SA"
 
New "Load.BT_684_M1" bus1="UC6236.1.2.3.4" phases=3 conn=delta model=2 kv=0.38 kw = 288.28972470790177 pf=0.92 status=variable vmaxpu=1.5 vminpu=0.93 daily="COM_1_SA" 
New "Load.BT_684_M2" bus1="UC6236.1.2.3.4" phases=3 conn=delta model=3 kv=0.38 kw = 288.28972470790177 pf=0.92 status=variable vmaxpu=1.5 vminpu=0.93 daily="COM_1_SA"
 
New "Load.BT_7327_M1" bus1="UC13253.1.2.4" phases=2 conn=delta model=2 kv=0.38 kw = 339.1654970636385 pf=0.92 status=variable vmaxpu=1.5 vminpu=0.93 daily="RES_2_SA" 
New "Load.BT_7327_M2" bus1="UC13253.1.2.4" phases=2 conn=delta model=3 kv=0.38 kw = 339.1654970636385 pf=0.92 status=variable vmaxpu=1.5 vminpu=0.93 daily="RES_2_SA"
 
New "Load.BT_1829_M1" bus1="UC15079.3.4" phases=1 conn=delta model=2 kv=0.22 kw = 381.5775614141543 pf=0.92 status=variable vmaxpu=1.5 vminpu=0.93 daily="RES_11_SA" 
New "Load.BT_1829_M2" bus1="UC15079.3.4" phases=1 conn=delta model=3 kv=0.22 kw = 381.5775614141543 pf=0.92 status=variable vmaxpu=1.5 vminpu=0.93 daily="RES_11_SA"
 
New "Load.BT_1959_M1" bus1="UC2860.2.4" phases=1 conn=delta model=2 kv=0.22 kw = 457.553453585852 pf=0.92 status=variable vmaxpu=1.5 vminpu=0.93 daily="RES_2_SA" 
New "Load.BT_1959_M2" bus1="UC2860.2.4" phases=1 conn=delta model=3 kv=0.22 kw = 457.553453585852 pf=0.92 status=variable vmaxpu=1.5 vminpu=0.93 daily="RES_2_SA"
 
New "Load.BT_3034_M1" bus1="UC14783.1.2.3.4" phases=3 conn=delta model=2 kv=0.38 kw = 544.9425868657836 pf=0.92 status=variable vmaxpu=1.5 vminpu=0.93 daily="RES_5_SA" 
New "Load.BT_3034_M2" bus1="UC14783.1.2.3.4" phases=3 conn=delta model=3 kv=0.38 kw = 544.9425868657836 pf=0.92 status=variable vmaxpu=1.5 vminpu=0.93 daily="RES_5_SA"
 
New "Load.BT_901_M1" bus1="UC5377.3.4" phases=1 conn=delta model=2 kv=0.22 kw = 399.2240839930288 pf=0.92 status=variable vmaxpu=1.5 vminpu=0.93 daily="COM_5_SA" 
New "Load.BT_901_M2" bus1="UC5377.3.4" phases=1 conn=delta model=3 kv=0.22 kw = 399.2240839930288 pf=0.92 status=variable vmaxpu=1.5 vminpu=0.93 daily="COM_5_SA"
 
New "Load.BT_1124_M1" bus1="UC15362.3.1.4" phases=2 conn=delta model=2 kv=0.38 kw = 596.3817744580473 pf=0.92 status=variable vmaxpu=1.5 vminpu=0.93 daily="RES_3_SA" 
New "Load.BT_1124_M2" bus1="UC15362.3.1.4" phases=2 conn=delta model=3 kv=0.38 kw = 596.3817744580473 pf=0.92 status=variable vmaxpu=1.5 vminpu=0.93 daily="RES_3_SA"
 
New "Load.BT_1124_M1" bus1="UC15362.1.2.4" phases=2 conn=delta model=2 kv=0.38 kw = 954.2108391328758 pf=0.92 status=variable vmaxpu=1.5 vminpu=0.93 daily="RES_3_SA" 
New "Load.BT_1124_M2" bus1="UC15362.1.2.4" phases=2 conn=delta model=3 kv=0.38 kw = 954.2108391328758 pf=0.92 status=variable vmaxpu=1.5 vminpu=0.93 daily="RES_3_SA"
 
New "Load.BT_2344_M1" bus1="UC2835.3.4" phases=1 conn=delta model=2 kv=0.22 kw = 274.6970597503733 pf=0.92 status=variable vmaxpu=1.5 vminpu=0.93 daily="RES_3_SA" 
New "Load.BT_2344_M2" bus1="UC2835.3.4" phases=1 conn=delta model=3 kv=0.22 kw = 274.6970597503733 pf=0.92 status=variable vmaxpu=1.5 vminpu=0.93 daily="RES_3_SA"
 
New "Load.BT_7439_M1" bus1="UC16096.2.4" phases=1 conn=delta model=2 kv=0.22 kw = 13.456345005231034 pf=0.92 status=variable vmaxpu=1.5 vminpu=0.93 daily="RES_7_SA" 
New "Load.BT_7439_M2" bus1="UC16096.2.4" phases=1 conn=delta model=3 kv=0.22 kw = 13.456345005231034 pf=0.92 status=variable vmaxpu=1.5 vminpu=0.93 daily="RES_7_SA"
 
New "Load.BT_6954_M1" bus1="UC16099.3.4" phases=1 conn=delta model=2 kv=0.22 kw = 0.0 pf=0.92 status=variable vmaxpu=1.5 vminpu=0.93 daily="COM_1_SA" 
New "Load.BT_6954_M2" bus1="UC16099.3.4" phases=1 conn=delta model=3 kv=0.22 kw = 0.0 pf=0.92 status=variable vmaxpu=1.5 vminpu=0.93 daily="COM_1_SA"
 
New "Load.BT_1112_M1" bus1="UC8981.3.4" phases=1 conn=delta model=2 kv=0.22 kw = 219.78696841877357 pf=0.92 status=variable vmaxpu=1.5 vminpu=0.93 daily="RES_7_SA" 
New "Load.BT_1112_M2" bus1="UC8981.3.4" phases=1 conn=delta model=3 kv=0.22 kw = 219.78696841877357 pf=0.92 status=variable vmaxpu=1.5 vminpu=0.93 daily="RES_7_SA"
 
New "Load.BT_2626_M1" bus1="UC16100.3.4" phases=1 conn=delta model=2 kv=0.22 kw = 296.38366973066593 pf=0.92 status=variable vmaxpu=1.5 vminpu=0.93 daily="RES_3_SA" 
New "Load.BT_2626_M2" bus1="UC16100.3.4" phases=1 conn=delta model=3 kv=0.22 kw = 296.38366973066593 pf=0.92 status=variable vmaxpu=1.5 vminpu=0.93 daily="RES_3_SA"
 
New "Load.BT_1516_M1" bus1="UC16103.3.4" phases=1 conn=delta model=2 kv=0.22 kw = 274.6970597503733 pf=0.92 status=variable vmaxpu=1.5 vminpu=0.93 daily="RES_3_SA" 
New "Load.BT_1516_M2" bus1="UC16103.3.4" phases=1 conn=delta model=3 kv=0.22 kw = 274.6970597503733 pf=0.92 status=variable vmaxpu=1.5 vminpu=0.93 daily="RES_3_SA"
 
New "Load.BT_2623_M1" bus1="UC15510.1.2.4" phases=2 conn=delta model=2 kv=0.38 kw = 506.02089954016134 pf=0.92 status=variable vmaxpu=1.5 vminpu=0.93 daily="RES_3_SA" 
New "Load.BT_2623_M2" bus1="UC15510.1.2.4" phases=2 conn=delta model=3 kv=0.38 kw = 506.02089954016134 pf=0.92 status=variable vmaxpu=1.5 vminpu=0.93 daily="RES_3_SA"
 
New "Load.BT_1124_M1" bus1="UC15362.1.2.3.4" phases=3 conn=delta model=2 kv=0.38 kw = 0.0 pf=0.92 status=variable vmaxpu=1.5 vminpu=0.93 daily="COM_5_SA" 
New "Load.BT_1124_M2" bus1="UC15362.1.2.3.4" phases=3 conn=delta model=3 kv=0.38 kw = 0.0 pf=0.92 status=variable vmaxpu=1.5 vminpu=0.93 daily="COM_5_SA"
 
New "Load.BT_2214_M1" bus1="UC11074.3.4" phases=1 conn=delta model=2 kv=0.22 kw = 122.0557709023273 pf=0.92 status=variable vmaxpu=1.5 vminpu=0.93 daily="COM_5_SA" 
New "Load.BT_2214_M2" bus1="UC11074.3.4" phases=1 conn=delta model=3 kv=0.22 kw = 122.0557709023273 pf=0.92 status=variable vmaxpu=1.5 vminpu=0.93 daily="COM_5_SA"
 
New "Load.BT_8544_M1" bus1="UC16080.2.4" phases=1 conn=delta model=2 kv=0.22 kw = 313.98138345539076 pf=0.92 status=variable vmaxpu=1.5 vminpu=0.93 daily="RES_7_SA" 
New "Load.BT_8544_M2" bus1="UC16080.2.4" phases=1 conn=delta model=3 kv=0.22 kw = 313.98138345539076 pf=0.92 status=variable vmaxpu=1.5 vminpu=0.93 daily="RES_7_SA"
 
New "Load.BT_387_M1" bus1="UC15581.1.2.3.4" phases=3 conn=delta model=2 kv=0.38 kw = 260.23931976351156 pf=0.92 status=variable vmaxpu=1.5 vminpu=0.93 daily="RES_3_SA" 
New "Load.BT_387_M2" bus1="UC15581.1.2.3.4" phases=3 conn=delta model=3 kv=0.38 kw = 260.23931976351156 pf=0.92 status=variable vmaxpu=1.5 vminpu=0.93 daily="RES_3_SA"
 
New "Load.BT_1113_M1" bus1="UC6951.3.4" phases=1 conn=delta model=2 kv=0.22 kw = 8.970896670154023 pf=0.92 status=variable vmaxpu=1.5 vminpu=0.93 daily="RES_7_SA" 
New "Load.BT_1113_M2" bus1="UC6951.3.4" phases=1 conn=delta model=3 kv=0.22 kw = 8.970896670154023 pf=0.92 status=variable vmaxpu=1.5 vminpu=0.93 daily="RES_7_SA"
 
New "Load.BT_539_M1" bus1="UC11814.1.2.4" phases=2 conn=delta model=2 kv=0.38 kw = 784.3323942872502 pf=0.92 status=variable vmaxpu=1.5 vminpu=0.93 daily="RES_3_SA" 
New "Load.BT_539_M2" bus1="UC11814.1.2.4" phases=2 conn=delta model=3 kv=0.38 kw = 784.3323942872502 pf=0.92 status=variable vmaxpu=1.5 vminpu=0.93 daily="RES_3_SA"
 
New "Load.BT_1858_M1" bus1="UC5368.1.2.3.4" phases=3 conn=delta model=2 kv=0.38 kw = 281.9259297438042 pf=0.92 status=variable vmaxpu=1.5 vminpu=0.93 daily="RES_3_SA" 
New "Load.BT_1858_M2" bus1="UC5368.1.2.3.4" phases=3 conn=delta model=3 kv=0.38 kw = 281.9259297438042 pf=0.92 status=variable vmaxpu=1.5 vminpu=0.93 daily="RES_3_SA"
 
New "Load.BT_539_M1" bus1="UC11814.3.1.4" phases=2 conn=delta model=2 kv=0.38 kw = 165.96158839784943 pf=0.92 status=variable vmaxpu=1.5 vminpu=0.93 daily="RES_7_SA" 
New "Load.BT_539_M2" bus1="UC11814.3.1.4" phases=2 conn=delta model=3 kv=0.38 kw = 165.96158839784943 pf=0.92 status=variable vmaxpu=1.5 vminpu=0.93 daily="RES_7_SA"
 
New "Load.BT_7327_M1" bus1="UC13253.1.2.4" phases=2 conn=delta model=2 kv=0.38 kw = 484.3342895598687 pf=0.92 status=variable vmaxpu=1.5 vminpu=0.93 daily="RES_3_SA" 
New "Load.BT_7327_M2" bus1="UC13253.1.2.4" phases=2 conn=delta model=3 kv=0.38 kw = 484.3342895598687 pf=0.92 status=variable vmaxpu=1.5 vminpu=0.93 daily="RES_3_SA"
 
New "Load.BT_2623_M1" bus1="UC15510.3.1.4" phases=2 conn=delta model=2 kv=0.38 kw = 0.0 pf=0.92 status=variable vmaxpu=1.5 vminpu=0.93 daily="RES_7_SA" 
New "Load.BT_2623_M2" bus1="UC15510.3.1.4" phases=2 conn=delta model=3 kv=0.38 kw = 0.0 pf=0.92 status=variable vmaxpu=1.5 vminpu=0.93 daily="RES_7_SA"
 
New "Load.BT_2215_M1" bus1="UC12303.2.4" phases=1 conn=delta model=2 kv=0.22 kw = 62.79627669107816 pf=0.92 status=variable vmaxpu=1.5 vminpu=0.93 daily="RES_7_SA" 
New "Load.BT_2215_M2" bus1="UC12303.2.4" phases=1 conn=delta model=3 kv=0.22 kw = 62.79627669107816 pf=0.92 status=variable vmaxpu=1.5 vminpu=0.93 daily="RES_7_SA"
 
New "Load.BT_358_M1" bus1="UC12262.1.4" phases=1 conn=delta model=2 kv=0.22 kw = 17.941793340308045 pf=0.92 status=variable vmaxpu=1.5 vminpu=0.93 daily="RES_7_SA" 
New "Load.BT_358_M2" bus1="UC12262.1.4" phases=1 conn=delta model=3 kv=0.22 kw = 17.941793340308045 pf=0.92 status=variable vmaxpu=1.5 vminpu=0.93 daily="RES_7_SA"
 
New "Load.BT_555_M1" bus1="UC15769.2.4" phases=1 conn=delta model=2 kv=0.22 kw = 374.36191657024256 pf=0.92 status=variable vmaxpu=1.5 vminpu=0.93 daily="RES_2_SA" 
New "Load.BT_555_M2" bus1="UC15769.2.4" phases=1 conn=delta model=3 kv=0.22 kw = 374.36191657024256 pf=0.92 status=variable vmaxpu=1.5 vminpu=0.93 daily="RES_2_SA"
 
New "Load.BT_1430_M1" bus1="UC9154.3.4" phases=1 conn=delta model=2 kv=0.22 kw = 652.2756341156437 pf=0.92 status=variable vmaxpu=1.5 vminpu=0.93 daily="COM_1_SA" 
New "Load.BT_1430_M2" bus1="UC9154.3.4" phases=1 conn=delta model=3 kv=0.22 kw = 652.2756341156437 pf=0.92 status=variable vmaxpu=1.5 vminpu=0.93 daily="COM_1_SA"
 
New "Load.BT_2920_M1" bus1="UC15771.1.2.3.4" phases=3 conn=delta model=2 kv=0.38 kw = 716.6979189665715 pf=0.92 status=variable vmaxpu=1.5 vminpu=0.93 daily="COM_1_SA" 
New "Load.BT_2920_M2" bus1="UC15771.1.2.3.4" phases=3 conn=delta model=3 kv=0.38 kw = 716.6979189665715 pf=0.92 status=variable vmaxpu=1.5 vminpu=0.93 daily="COM_1_SA"
 
New "Load.BT_7655_M1" bus1="UC15774.1.4" phases=1 conn=delta model=2 kv=0.22 kw = 419.15735957864763 pf=0.92 status=variable vmaxpu=1.5 vminpu=0.93 daily="RES_2_SA" 
New "Load.BT_7655_M2" bus1="UC15774.1.4" phases=1 conn=delta model=3 kv=0.22 kw = 419.15735957864763 pf=0.92 status=variable vmaxpu=1.5 vminpu=0.93 daily="RES_2_SA"
 
New "Load.BT_1880_M1" bus1="UC5019.1.4" phases=1 conn=delta model=2 kv=0.22 kw = 444.7547555834505 pf=0.92 status=variable vmaxpu=1.5 vminpu=0.93 daily="RES_2_SA" 
New "Load.BT_1880_M2" bus1="UC5019.1.4" phases=1 conn=delta model=3 kv=0.22 kw = 444.7547555834505 pf=0.92 status=variable vmaxpu=1.5 vminpu=0.93 daily="RES_2_SA"
 
New "Load.BT_1209_M1" bus1="UC15445.3.4" phases=1 conn=delta model=2 kv=0.22 kw = 419.15735957864763 pf=0.92 status=variable vmaxpu=1.5 vminpu=0.93 daily="RES_2_SA" 
New "Load.BT_1209_M2" bus1="UC15445.3.4" phases=1 conn=delta model=3 kv=0.22 kw = 419.15735957864763 pf=0.92 status=variable vmaxpu=1.5 vminpu=0.93 daily="RES_2_SA"
 
New "Load.BT_2215_M1" bus1="UC7160.1.4" phases=1 conn=delta model=2 kv=0.22 kw = 112.7389984891236 pf=0.92 status=variable vmaxpu=1.5 vminpu=0.93 daily="COM_1_SA" 
New "Load.BT_2215_M2" bus1="UC7160.1.4" phases=1 conn=delta model=3 kv=0.22 kw = 112.7389984891236 pf=0.92 status=variable vmaxpu=1.5 vminpu=0.93 daily="COM_1_SA"
 
New "Load.BT_628_M1" bus1="UC7914.1.4" phases=1 conn=delta model=2 kv=0.22 kw = 46.70615651692263 pf=0.92 status=variable vmaxpu=1.5 vminpu=0.93 daily="COM_1_SA" 
New "Load.BT_628_M2" bus1="UC7914.1.4" phases=1 conn=delta model=3 kv=0.22 kw = 46.70615651692263 pf=0.92 status=variable vmaxpu=1.5 vminpu=0.93 daily="COM_1_SA"
 
New "Load.BT_1234_M1" bus1="UC15448.1.4" phases=1 conn=delta model=2 kv=0.22 kw = 86.39121151620982 pf=0.92 status=variable vmaxpu=1.5 vminpu=0.93 daily="RES_2_SA" 
New "Load.BT_1234_M2" bus1="UC15448.1.4" phases=1 conn=delta model=3 kv=0.22 kw = 86.39121151620982 pf=0.92 status=variable vmaxpu=1.5 vminpu=0.93 daily="RES_2_SA"
 
New "Load.BT_1380_M1" bus1="UC10064.3.4" phases=1 conn=delta model=2 kv=0.22 kw = 291.2633456948278 pf=0.92 status=variable vmaxpu=1.5 vminpu=0.93 daily="RES_11_SA" 
New "Load.BT_1380_M2" bus1="UC10064.3.4" phases=1 conn=delta model=3 kv=0.22 kw = 291.2633456948278 pf=0.92 status=variable vmaxpu=1.5 vminpu=0.93 daily="RES_11_SA"
 
New "Load.BT_785_M1" bus1="UC9638.3.4" phases=1 conn=delta model=2 kv=0.22 kw = 946.9505755097308 pf=0.92 status=variable vmaxpu=1.5 vminpu=0.93 daily="RES_1_SA" 
New "Load.BT_785_M2" bus1="UC9638.3.4" phases=1 conn=delta model=3 kv=0.22 kw = 946.9505755097308 pf=0.92 status=variable vmaxpu=1.5 vminpu=0.93 daily="RES_1_SA"
 
New "Load.BT_7701_M1" bus1="UC15452.1.2.3.4" phases=3 conn=delta model=2 kv=0.38 kw = 1107.087377207726 pf=0.92 status=variable vmaxpu=1.5 vminpu=0.93 daily="RES_2_SA" 
New "Load.BT_7701_M2" bus1="UC15452.1.2.3.4" phases=3 conn=delta model=3 kv=0.38 kw = 1107.087377207726 pf=0.92 status=variable vmaxpu=1.5 vminpu=0.93 daily="RES_2_SA"
 
New "Load.BT_387_M1" bus1="UC15581.1.4" phases=1 conn=delta model=2 kv=0.22 kw = 224.09496979635716 pf=0.92 status=variable vmaxpu=1.5 vminpu=0.93 daily="RES_3_SA" 
New "Load.BT_387_M2" bus1="UC15581.1.4" phases=1 conn=delta model=3 kv=0.22 kw = 224.09496979635716 pf=0.92 status=variable vmaxpu=1.5 vminpu=0.93 daily="RES_3_SA"
 
New "Load.BT_3034_M1" bus1="UC14783.1.2.3.4" phases=3 conn=delta model=2 kv=0.38 kw = 599.9962094547628 pf=0.92 status=variable vmaxpu=1.5 vminpu=0.93 daily="RES_3_SA" 
New "Load.BT_3034_M2" bus1="UC14783.1.2.3.4" phases=3 conn=delta model=3 kv=0.38 kw = 599.9962094547628 pf=0.92 status=variable vmaxpu=1.5 vminpu=0.93 daily="RES_3_SA"
 
New "Load.BT_1124_M1" bus1="UC8867.1.4" phases=1 conn=delta model=2 kv=0.22 kw = 802.4045692708273 pf=0.92 status=variable vmaxpu=1.5 vminpu=0.93 daily="RES_3_SA" 
New "Load.BT_1124_M2" bus1="UC8867.1.4" phases=1 conn=delta model=3 kv=0.22 kw = 802.4045692708273 pf=0.92 status=variable vmaxpu=1.5 vminpu=0.93 daily="RES_3_SA"
 
New "Load.BT_121_M1" bus1="UC12650.2.3.4" phases=2 conn=delta model=2 kv=0.38 kw = 233.24331342400458 pf=0.92 status=variable vmaxpu=1.5 vminpu=0.93 daily="RES_7_SA" 
New "Load.BT_121_M2" bus1="UC12650.2.3.4" phases=2 conn=delta model=3 kv=0.38 kw = 233.24331342400458 pf=0.92 status=variable vmaxpu=1.5 vminpu=0.93 daily="RES_7_SA"
 
New "Load.BT_239_M1" bus1="UC16074.1.2.3.4" phases=3 conn=delta model=2 kv=0.38 kw = 11508.361029541955 pf=0.92 status=variable vmaxpu=1.5 vminpu=0.93 daily="RES_3_SA" 
New "Load.BT_239_M2" bus1="UC16074.1.2.3.4" phases=3 conn=delta model=3 kv=0.38 kw = 11508.361029541955 pf=0.92 status=variable vmaxpu=1.5 vminpu=0.93 daily="RES_3_SA"
 
New "Load.BT_8152_M1" bus1="UC16078.1.2.4" phases=2 conn=delta model=2 kv=0.38 kw = 94.19441503661723 pf=0.92 status=variable vmaxpu=1.5 vminpu=0.93 daily="RES_7_SA" 
New "Load.BT_8152_M2" bus1="UC16078.1.2.4" phases=2 conn=delta model=3 kv=0.38 kw = 94.19441503661723 pf=0.92 status=variable vmaxpu=1.5 vminpu=0.93 daily="RES_7_SA"
 
New "Load.BT_8398_M1" bus1="UC15580.2.4" phases=1 conn=delta model=2 kv=0.22 kw = 275.1720070516313 pf=0.92 status=variable vmaxpu=1.5 vminpu=0.93 daily="RES_2_SA" 
New "Load.BT_8398_M2" bus1="UC15580.2.4" phases=1 conn=delta model=3 kv=0.22 kw = 275.1720070516313 pf=0.92 status=variable vmaxpu=1.5 vminpu=0.93 daily="RES_2_SA"
 
New "Load.BT_2466_M1" bus1="UC15707.1.4" phases=1 conn=delta model=2 kv=0.22 kw = 303.96907755703455 pf=0.92 status=variable vmaxpu=1.5 vminpu=0.93 daily="RES_2_SA" 
New "Load.BT_2466_M2" bus1="UC15707.1.4" phases=1 conn=delta model=3 kv=0.22 kw = 303.96907755703455 pf=0.92 status=variable vmaxpu=1.5 vminpu=0.93 daily="RES_2_SA"
 
New "Load.BT_2214_M1" bus1="UC11074.1.4" phases=1 conn=delta model=2 kv=0.22 kw = 0.0 pf=0.92 status=variable vmaxpu=1.5 vminpu=0.93 daily="COM_1_SA" 
New "Load.BT_2214_M2" bus1="UC11074.1.4" phases=1 conn=delta model=3 kv=0.22 kw = 0.0 pf=0.92 status=variable vmaxpu=1.5 vminpu=0.93 daily="COM_1_SA"
 
New "Load.BT_1112_M1" bus1="UC8981.2.4" phases=1 conn=delta model=2 kv=0.22 kw = 703.92839013208 pf=0.92 status=variable vmaxpu=1.5 vminpu=0.93 daily="RES_2_SA" 
New "Load.BT_1112_M2" bus1="UC8981.2.4" phases=1 conn=delta model=3 kv=0.22 kw = 703.92839013208 pf=0.92 status=variable vmaxpu=1.5 vminpu=0.93 daily="RES_2_SA"
 
New "Load.BT_6942_M1" bus1="UC15761.1.2.3.4" phases=3 conn=delta model=2 kv=0.38 kw = 639.9349001200727 pf=0.92 status=variable vmaxpu=1.5 vminpu=0.93 daily="RES_2_SA" 
New "Load.BT_6942_M2" bus1="UC15761.1.2.3.4" phases=3 conn=delta model=3 kv=0.38 kw = 639.9349001200727 pf=0.92 status=variable vmaxpu=1.5 vminpu=0.93 daily="RES_2_SA"
 
New "Load.BT_2085_M1" bus1="UC15760.1.2.3.4" phases=3 conn=delta model=2 kv=0.38 kw = 277.0158248589894 pf=0.92 status=variable vmaxpu=1.5 vminpu=0.93 daily="COM_1_SA" 
New "Load.BT_2085_M2" bus1="UC15760.1.2.3.4" phases=3 conn=delta model=3 kv=0.38 kw = 277.0158248589894 pf=0.92 status=variable vmaxpu=1.5 vminpu=0.93 daily="COM_1_SA"
 
New "Load.BT_702_M1" bus1="UC8051.1.2.4" phases=2 conn=delta model=2 kv=0.38 kw = 982.3000716843115 pf=0.92 status=variable vmaxpu=1.5 vminpu=0.93 daily="RES_2_SA" 
New "Load.BT_702_M2" bus1="UC8051.1.2.4" phases=2 conn=delta model=3 kv=0.38 kw = 982.3000716843115 pf=0.92 status=variable vmaxpu=1.5 vminpu=0.93 daily="RES_2_SA"
 
New "Load.BT_7425_M1" bus1="UC15763.3.4" phases=1 conn=delta model=2 kv=0.22 kw = 0.0 pf=0.92 status=variable vmaxpu=1.5 vminpu=0.93 daily="RES_2_SA" 
New "Load.BT_7425_M2" bus1="UC15763.3.4" phases=1 conn=delta model=3 kv=0.22 kw = 0.0 pf=0.92 status=variable vmaxpu=1.5 vminpu=0.93 daily="RES_2_SA"
 
New "Load.BT_854_M1" bus1="UC13201.2.4" phases=1 conn=delta model=2 kv=0.22 kw = 431.9560575810491 pf=0.92 status=variable vmaxpu=1.5 vminpu=0.93 daily="RES_2_SA" 
New "Load.BT_854_M2" bus1="UC13201.2.4" phases=1 conn=delta model=3 kv=0.22 kw = 431.9560575810491 pf=0.92 status=variable vmaxpu=1.5 vminpu=0.93 daily="RES_2_SA"
 
New "Load.BT_854_M1" bus1="UC13201.3.4" phases=1 conn=delta model=2 kv=0.22 kw = 767.9218801440873 pf=0.92 status=variable vmaxpu=1.5 vminpu=0.93 daily="RES_2_SA" 
New "Load.BT_854_M2" bus1="UC13201.3.4" phases=1 conn=delta model=3 kv=0.22 kw = 767.9218801440873 pf=0.92 status=variable vmaxpu=1.5 vminpu=0.93 daily="RES_2_SA"
 
New "Load.BT_3034_M1" bus1="UC14783.1.2.3.4" phases=3 conn=delta model=2 kv=0.38 kw = 343.1940197334405 pf=0.92 status=variable vmaxpu=1.5 vminpu=0.93 daily="RES_11_SA" 
...