output/1_TAP2_1/Cargas_MT_SA10_1_TAP2_1.dss
New "Load.MT_8447_0_M1" bus1="84471.1.2.3.4" phases=3 conn=delta model=2 kv=13.8 kw = 31.473927280735065 pf=0.92 status=variable vmaxpu=1.5 vminpu=0.93 daily="6_SA" 
New "Load.MT_8447_0_M2" bus1="84471.1.2.3.4" phases=3 conn=delta model=3 kv=13.8 kw = 31.473927280735065 pf=0.92 status=variable vmaxpu=1.5 vminpu=0.93 daily="6_SA"
 
New "Load.MT_8366_2_M1" bus1="83661.1.2.3.4" phases=3 conn=delta model=2 kv=13.8 kw = 1.6276881720430105 pf=0.92 status=variable vmaxpu=1.5 vminpu=0.93 daily="4_SA" 
New "Load.MT_8366_2_M2" bus1="83661.1.2.3.4" phases=3 conn=delta model=3 kv=13.8 kw = 1.6276881720430105 pf=0.92 status=variable vmaxpu=1.5 vminpu=0.93 daily="4_SA"
 
New "Load.MT_8392_3_M1" bus1="83921.1.2.3.4" phases=3 conn=delta model=2 kv=13.8 kw = 11.583090564574436 pf=0.92 status=variable vmaxpu=1.5 vminpu=0.93 daily="6_SA" 
New "Load.MT_8392_3_M2" bus1="83921.1.2.3.4" phases=3 conn=delta model=3 kv=13.8 kw = 11.583090564574436 pf=0.92 status=variable vmaxpu=1.5 vminpu=0.93 daily="6_SA"
 
New "Load.MT_6931_4_M1" bus1="69311.1.2.3.4" phases=3 conn=delta model=2 kv=13.8 kw = 618.2121998899687 pf=0.92 status=variable vmaxpu=1.5 vminpu=0.93 daily="3_SA" 
New "Load.MT_6931_4_M2" bus1="69311.1.2.3.4" phases=3 conn=delta model=3 kv=13.8 kw = 618.2121998899687 pf=0.92 status=variable vmaxpu=1.5 vminpu=0.93 daily="3_SA"
 
New "Load.MT_8108_6_M1" bus1="81081.1.2.3.4" phases=3 conn=delta model=2 kv=13.8 kw = 7.709909219221063 pf=0.92 status=variable vmaxpu=1.5 vminpu=0.93 daily="6_SA" 
New "Load.MT_8108_6_M2" bus1="81081.1.2.3.4" phases=3 conn=delta model=3 kv=13.8 kw = 7.709909219221063 pf=0.92 status=variable vmaxpu=1.5 vminpu=0.93 daily="6_SA"
 
New "Load.MT_983_10_M1" bus1="9831.1.2.3.4" phases=3 conn=delta model=2 kv=13.8 kw = 43.85990555478158 pf=0.92 status=variable vmaxpu=1.5 vminpu=0.93 daily="6_SA" 
New "Load.MT_983_10_M2" bus1="9831.1.2.3.4" phases=3 conn=delta model=3 kv=13.8 kw = 43.85990555478158 pf=0.92 status=variable vmaxpu=1.5 vminpu=0.93 daily="6_SA"
 
New "Load.MT_7525_13_M1" bus1="75251.1.2.3.4" phases=3 conn=delta model=2 kv=13.8 kw = 1.4374914904103953 pf=0.92 status=variable vmaxpu=1.5 vminpu=0.93 daily="5_SA" 
New "Load.MT_7525_13_M2" bus1="75251.1.2.3.4" phases=3 conn=delta model=3 kv=13.8 kw = 1.4374914904103953 pf=0.92 status=variable vmaxpu=1.5 vminpu=0.93 daily="5_SA"
 
New "Load.MT_7286_14_M1" bus1="72861.1.2.3.4" phases=3 conn=delta model=2 kv=13.8 kw = 29.922419816530898 pf=0.92 status=variable vmaxpu=1.5 vminpu=0.93 daily="9_SA" 
New "Load.MT_7286_14_M2" bus1="72861.1.2.3.4" phases=3 conn=delta model=3 kv=13.8 kw = 29.922419816530898 pf=0.92 status=variable vmaxpu=1.5 vminpu=0.93 daily="9_SA"
 
New "Load.MT_6804_16_M1" bus1="68041.1.2.3.4" phases=3 conn=delta model=2 kv=13.8 kw = 0.6463957757304999 pf=0.92 status=variable vmaxpu=1.5 vminpu=0.93 daily="1_SA" 
New "Load.MT_6804_16_M2" bus1="68041.1.2.3.4" phases=3 conn=delta model=3 kv=13.8 kw = 0.6463957757304999 pf=0.92 status=variable vmaxpu=1.5 vminpu=0.93 daily="1_SA"
 
New "Load.MT_6914_17_M1" bus1="69141.1.2.3.4" phases=3 conn=delta model=2 kv=13.8 kw = 46.20806531066377 pf=0.92 status=variable vmaxpu=1.5 vminpu=0.93 daily="7_SA" 
New "Load.MT_6914_17_M2" bus1="69141.1.2.3.4" phases=3 conn=delta model=3 kv=13.8 kw = 46.20806531066377 pf=0.92 status=variable vmaxpu=1.5 vminpu=0.93 daily="7_SA"
 
New "Load.MT_822_18_M1" bus1="8221.1.2.3.4" phases=3 conn=delta model=2 kv=13.8 kw = 0.7740861033779671 pf=0.92 status=variable vmaxpu=1.5 vminpu=0.93 daily="1_SA" 
New "Load.MT_822_18_M2" bus1="8221.1.2.3.4" phases=3 conn=delta model=3 kv=13.8 kw = 0.7740861033779671 pf=0.92 status=variable vmaxpu=1.5 vminpu=0.93 daily="1_SA"
 
New "Load.MT_6806_19_M1" bus1="68061.1.2.3.4" phases=3 conn=delta model=2 kv=13.8 kw = 0.6803920111791851 pf=0.92 status=variable vmaxpu=1.5 vminpu=0.93 daily="1_SA" 
New "Load.MT_6806_19_M2" bus1="68061.1.2.3.4" phases=3 conn=delta model=3 kv=13.8 kw = 0.6803920111791851 pf=0.92 status=variable vmaxpu=1.5 vminpu=0.93 daily="1_SA"
 
New "Load.MT_2005_22_M1" bus1="20051.1.2.3.4" phases=3 conn=delta model=2 kv=13.8 kw = 2.1354989106376223 pf=0.92 status=variable vmaxpu=1.5 vminpu=0.93 daily="2_SA" 
New "Load.MT_2005_22_M2" bus1="20051.1.2.3.4" phases=3 conn=delta model=3 kv=13.8 kw = 2.1354989106376223 pf=0.92 status=variable vmaxpu=1.5 vminpu=0.93 daily="2_SA"
 
New "Load.MT_7479_23_M1" bus1="74791.1.2.3.4" phases=3 conn=delta model=2 kv=13.8 kw = 4.164534338061277 pf=0.92 status=variable vmaxpu=1.5 vminpu=0.93 daily="2_SA" 
New "Load.MT_7479_23_M2" bus1="74791.1.2.3.4" phases=3 conn=delta model=3 kv=13.8 kw = 4.164534338061277 pf=0.92 status=variable vmaxpu=1.5 vminpu=0.93 daily="2_SA"
 
New "Load.MT_1443_24_M1" bus1="14431.1.2.3.4" phases=3 conn=delta model=2 kv=13.8 kw = 0.07967502603437573 pf=0.92 status=variable vmaxpu=1.5 vminpu=0.93 daily="1_SA" 
New "Load.MT_1443_24_M2" bus1="14431.1.2.3.4" phases=3 conn=delta model=3 kv=13.8 kw = 0.07967502603437573 pf=0.92 status=variable vmaxpu=1.5 vminpu=0.93 daily="1_SA"
 
...